examples/capabilities/feeder-generator/R1-12.47-2_populated.glm
clock {
  timezone EST+5EDT;
  stoptime '2023-12-31 07:00:00';
  starttime '2023-01-01 07:00:00';
}

#set profiler=1
#set minimum_timestep=300
#set relax_naming_rules=1
#set warn=0

#include "${TESPDIR}/data/schedules/appliance_schedules.glm"
#include "${TESPDIR}/data/schedules/water_and_setpoint_schedule_v5.glm"
#include "${TESPDIR}/data/schedules/commercial_schedules.glm"

module climate;
module connection;
module generators;
module powerflow {
  solver_method NR;
  default_maximum_voltage_error 1e-6;
}
module residential {
  implicit_enduses NONE;
}
module tape;

object node {
  name R1_12_47_2_node_4;
  phases ABCN;
  nominal_voltage 7200.0;
  voltage_A 7200.0+0.0j;
  voltage_B -3600.00-6235.38j;
  voltage_C -3600.00+6235.38j;
}

object node {
  name R1_12_47_2_node_5;
  phases ABCN;
  nominal_voltage 7200.0;
  voltage_A 7200.0+0.0j;
  voltage_B -3600.00-6235.38j;
  voltage_C -3600.00+6235.38j;
}

object node {
  name R1_12_47_2_node_6;
  phases ABCN;
  nominal_voltage 7200.0;
  voltage_A 7200.0+0.0j;
  voltage_B -3600.00-6235.38j;
  voltage_C -3600.00+6235.38j;
}

object node {
  name R1_12_47_2_node_7;
  phases ABCN;
  nominal_voltage 7200.0;
  voltage_A 7200.0+0.0j;
  voltage_B -3600.00-6235.38j;
  voltage_C -3600.00+6235.38j;
}

object node {
  name R1_12_47_2_node_8;
  phases AN;
  nominal_voltage 7200.0;
  voltage_A 7200.0+0.0j;
}

object node {
  name R1_12_47_2_node_10;
  phases AN;
  nominal_voltage 7200.0;
  voltage_A 7200.0+0.0j;
}

object node {
  name R1_12_47_2_node_11;
  phases AN;
  nominal_voltage 7200.0;
  voltage_A 7200.0+0.0j;
}

object node {
  name R1_12_47_2_node_12;
  phases AN;
  nominal_voltage 7200.0;
  voltage_A 7200.0+0.0j;
}

object node {
  name R1_12_47_2_node_13;
  phases AN;
  nominal_voltage 7200.0;
  voltage_A 7200.0+0.0j;
}

object node {
  name R1_12_47_2_node_18;
  phases ABCN;
  nominal_voltage 7200.0;
  voltage_A 7200.0+0.0j;
  voltage_B -3600.00-6235.38j;
  voltage_C -3600.00+6235.38j;
}

object node {
  name R1_12_47_2_node_19;
  phases CN;
  nominal_voltage 7200.0;
  voltage_C -3600.00+6235.38j;
}

object node {
  name R1_12_47_2_node_21;
  phases ABCN;
  nominal_voltage 7200.0;
  voltage_A 7200.0+0.0j;
  voltage_B -3600.00-6235.38j;
  voltage_C -3600.00+6235.38j;
}

object node {
  name R1_12_47_2_node_22;
  phases BN;
  nominal_voltage 7200.0;
  voltage_B -3600.00-6235.38j;
}

object node {
  name R1_12_47_2_node_24;
  phases ABCN;
  nominal_voltage 7200.0;
  voltage_A 7200.0+0.0j;
  voltage_B -3600.00-6235.38j;
  voltage_C -3600.00+6235.38j;
}

object node {
  name R1_12_47_2_node_25;
  phases AN;
  nominal_voltage 7200.0;
  voltage_A 7200.0+0.0j;
}

object node {
  name R1_12_47_2_node_28;
  phases ABCN;
  nominal_voltage 7200.0;
  voltage_A 7200.0+0.0j;
  voltage_B -3600.00-6235.38j;
  voltage_C -3600.00+6235.38j;
}

object node {
  name R1_12_47_2_node_29;
  phases BCN;
  nominal_voltage 7200.0;
  voltage_B -3600.00-6235.38j;
  voltage_C -3600.00+6235.38j;
}

object node {
  name R1_12_47_2_node_33;
  phases BCN;
  nominal_voltage 7200.0;
  voltage_B -3600.00-6235.38j;
  voltage_C -3600.00+6235.38j;
}

object node {
  name R1_12_47_2_node_34;
  phases BN;
  nominal_voltage 7200.0;
  voltage_B -3600.00-6235.38j;
}

object node {
  name R1_12_47_2_node_35;
  phases CN;
  nominal_voltage 7200.0;
  voltage_C -3600.00+6235.38j;
}

object node {
  name R1_12_47_2_node_36;
  phases CN;
  nominal_voltage 7200.0;
  voltage_C -3600.00+6235.38j;
}

object node {
  name R1_12_47_2_node_37;
  phases CN;
  nominal_voltage 7200.0;
  voltage_C -3600.00+6235.38j;
}

object node {
  name R1_12_47_2_node_39;
  phases CN;
  nominal_voltage 7200.0;
  voltage_C -3600.00+6235.38j;
}

object node {
  name R1_12_47_2_node_40;
  phases CN;
  nominal_voltage 7200.0;
  voltage_C -3600.00+6235.38j;
}

object node {
  name R1_12_47_2_node_41;
  phases CN;
  nominal_voltage 7200.0;
  voltage_C -3600.00+6235.38j;
}

object node {
  name R1_12_47_2_node_43;
  phases CN;
  nominal_voltage 7200.0;
  voltage_C -3600.00+6235.38j;
}

object node {
  name R1_12_47_2_node_42;
  phases CN;
  nominal_voltage 7200.0;
  voltage_C -3600.00+6235.38j;
}

object node {
  name R1_12_47_2_node_44;
  phases CN;
  nominal_voltage 7200.0;
  voltage_C -3600.00+6235.38j;
}

object node {
  name R1_12_47_2_node_45;
  phases CN;
  nominal_voltage 7200.0;
  voltage_C -3600.00+6235.38j;
}

object node {
  name R1_12_47_2_node_46;
  phases CN;
  nominal_voltage 7200.0;
  voltage_C -3600.00+6235.38j;
}

object node {
  name R1_12_47_2_node_49;
  phases CN;
  nominal_voltage 7200.0;
  voltage_C -3600.00+6235.38j;
}

object node {
  name R1_12_47_2_node_50;
  phases CN;
  nominal_voltage 7200.0;
  voltage_C -3600.00+6235.38j;
}

object node {
  name R1_12_47_2_node_51;
  phases CN;
  nominal_voltage 7200.0;
  voltage_C -3600.00+6235.38j;
}

object node {
  name R1_12_47_2_node_52;
  phases CN;
  nominal_voltage 7200.0;
  voltage_C -3600.00+6235.38j;
}

object node {
  name R1_12_47_2_node_53;
  phases CN;
  nominal_voltage 7200.0;
  voltage_C -3600.00+6235.38j;
}

object node {
  name R1_12_47_2_node_57;
  phases ABCN;
  nominal_voltage 7200.0;
  voltage_A 7200.0+0.0j;
  voltage_B -3600.00-6235.38j;
  voltage_C -3600.00+6235.38j;
}

object node {
  name R1_12_47_2_node_58;
  phases BN;
  nominal_voltage 7200.0;
  voltage_B -3600.00-6235.38j;
}

object node {
  name R1_12_47_2_node_61;
  phases BN;
  nominal_voltage 7200.0;
  voltage_B -3600.00-6235.38j;
}

object node {
  name R1_12_47_2_node_62;
  phases BN;
  nominal_voltage 7200.0;
  voltage_B -3600.00-6235.38j;
}

object node {
  name R1_12_47_2_node_67;
  phases BN;
  nominal_voltage 7200.0;
  voltage_B -3600.00-6235.38j;
}

object node {
  name R1_12_47_2_node_68;
  phases BN;
  nominal_voltage 7200.0;
  voltage_B -3600.00-6235.38j;
}

object node {
  name R1_12_47_2_node_73;
  phases BN;
  nominal_voltage 7200.0;
  voltage_B -3600.00-6235.38j;
}

object node {
  name R1_12_47_2_node_74;
  phases BN;
  nominal_voltage 7200.0;
  voltage_B -3600.00-6235.38j;
}

object node {
  name R1_12_47_2_node_75;
  phases BN;
  nominal_voltage 7200.0;
  voltage_B -3600.00-6235.38j;
}

object node {
  name R1_12_47_2_node_76;
  phases BN;
  nominal_voltage 7200.0;
  voltage_B -3600.00-6235.38j;
}

object node {
  name R1_12_47_2_node_78;
  phases BN;
  nominal_voltage 7200.0;
  voltage_B -3600.00-6235.38j;
}

object node {
  name R1_12_47_2_node_79;
  phases BN;
  nominal_voltage 7200.0;
  voltage_B -3600.00-6235.38j;
}

object node {
  name R1_12_47_2_node_81;
  phases BN;
  nominal_voltage 7200.0;
  voltage_B -3600.00-6235.38j;
}

object node {
  name R1_12_47_2_node_82;
  phases BN;
  nominal_voltage 7200.0;
  voltage_B -3600.00-6235.38j;
}

object node {
  name R1_12_47_2_node_83;
  phases BN;
  nominal_voltage 7200.0;
  voltage_B -3600.00-6235.38j;
}

object node {
  name R1_12_47_2_node_84;
  phases BN;
  nominal_voltage 7200.0;
  voltage_B -3600.00-6235.38j;
}

object node {
  name R1_12_47_2_node_85;
  phases BN;
  nominal_voltage 7200.0;
  voltage_B -3600.00-6235.38j;
}

object node {
  name R1_12_47_2_node_86;
  phases BN;
  nominal_voltage 7200.0;
  voltage_B -3600.00-6235.38j;
}

object node {
  name R1_12_47_2_node_89;
  phases BN;
  nominal_voltage 7200.0;
  voltage_B -3600.00-6235.38j;
}

object node {
  name R1_12_47_2_node_90;
  phases BN;
  nominal_voltage 7200.0;
  voltage_B -3600.00-6235.38j;
}

object node {
  name R1_12_47_2_node_93;
  phases BN;
  nominal_voltage 7200.0;
  voltage_B -3600.00-6235.38j;
}

object node {
  name R1_12_47_2_node_95;
  phases BN;
  nominal_voltage 7200.0;
  voltage_B -3600.00-6235.38j;
}

object node {
  name R1_12_47_2_node_96;
  phases BN;
  nominal_voltage 7200.0;
  voltage_B -3600.00-6235.38j;
}

object node {
  name R1_12_47_2_node_97;
  phases BN;
  nominal_voltage 7200.0;
  voltage_B -3600.00-6235.38j;
}

object node {
  name R1_12_47_2_node_336;
  phases BN;
  nominal_voltage 7200.0;
  voltage_B -3600.00-6235.38j;
}

object node {
  name R1_12_47_2_node_100;
  phases BN;
  nominal_voltage 7200.0;
  voltage_B -3600.00-6235.38j;
}

object node {
  name R1_12_47_2_node_102;
  phases BN;
  nominal_voltage 7200.0;
  voltage_B -3600.00-6235.38j;
}

object node {
  name R1_12_47_2_node_101;
  phases BN;
  nominal_voltage 7200.0;
  voltage_B -3600.00-6235.38j;
}

object node {
  name R1_12_47_2_node_103;
  phases BN;
  nominal_voltage 7200.0;
  voltage_B -3600.00-6235.38j;
}

object node {
  name R1_12_47_2_node_99;
  phases BN;
  nominal_voltage 7200.0;
  voltage_B -3600.00-6235.38j;
}

object node {
  name R1_12_47_2_node_105;
  phases BN;
  nominal_voltage 7200.0;
  voltage_B -3600.00-6235.38j;
}

object node {
  name R1_12_47_2_node_337;
  phases BN;
  nominal_voltage 7200.0;
  voltage_B -3600.00-6235.38j;
}

object node {
  name R1_12_47_2_node_107;
  phases BN;
  nominal_voltage 7200.0;
  voltage_B -3600.00-6235.38j;
}

object node {
  name R1_12_47_2_node_108;
  phases BN;
  nominal_voltage 7200.0;
  voltage_B -3600.00-6235.38j;
}

object node {
  name R1_12_47_2_node_109;
  phases BN;
  nominal_voltage 7200.0;
  voltage_B -3600.00-6235.38j;
}

object node {
  name R1_12_47_2_node_110;
  phases BN;
  nominal_voltage 7200.0;
  voltage_B -3600.00-6235.38j;
}

object node {
  name R1_12_47_2_node_111;
  phases ABCN;
  nominal_voltage 7200.0;
  voltage_A 7200.0+0.0j;
  voltage_B -3600.00-6235.38j;
  voltage_C -3600.00+6235.38j;
}

object node {
  name R1_12_47_2_node_112;
  phases AN;
  nominal_voltage 7200.0;
  voltage_A 7200.0+0.0j;
}

object node {
  name R1_12_47_2_node_113;
  phases AN;
  nominal_voltage 7200.0;
  voltage_A 7200.0+0.0j;
}

object node {
  name R1_12_47_2_node_114;
  phases ABCN;
  nominal_voltage 7200.0;
  voltage_A 7200.0+0.0j;
  voltage_B -3600.00-6235.38j;
  voltage_C -3600.00+6235.38j;
}

object node {
  name R1_12_47_2_node_115;
  phases AN;
  nominal_voltage 7200.0;
  voltage_A 7200.0+0.0j;
}

object node {
  name R1_12_47_2_node_116;
  phases ABCN;
  nominal_voltage 7200.0;
  voltage_A 7200.0+0.0j;
  voltage_B -3600.00-6235.38j;
  voltage_C -3600.00+6235.38j;
}

object node {
  name R1_12_47_2_node_323;
  phases BN;
  nominal_voltage 7200.0;
  voltage_B -3600.00-6235.38j;
}

object node {
  name R1_12_47_2_node_118;
  phases ABCN;
  nominal_voltage 7200.0;
  voltage_A 7200.0+0.0j;
  voltage_B -3600.00-6235.38j;
  voltage_C -3600.00+6235.38j;
}

object node {
  name R1_12_47_2_node_119;
  phases ABN;
  nominal_voltage 7200.0;
  voltage_A 7200.0+0.0j;
  voltage_B -3600.00-6235.38j;
}

object node {
  name R1_12_47_2_node_122;
  phases BN;
  nominal_voltage 7200.0;
  voltage_B -3600.00-6235.38j;
}

object node {
  name R1_12_47_2_node_123;
  phases BN;
  nominal_voltage 7200.0;
  voltage_B -3600.00-6235.38j;
}

object node {
  name R1_12_47_2_node_129;
  phases AN;
  nominal_voltage 7200.0;
  voltage_A 7200.0+0.0j;
}

object node {
  name R1_12_47_2_node_128;
  phases AN;
  nominal_voltage 7200.0;
  voltage_A 7200.0+0.0j;
}

object node {
  name R1_12_47_2_node_133;
  phases AN;
  nominal_voltage 7200.0;
  voltage_A 7200.0+0.0j;
}

object node {
  name R1_12_47_2_node_135;
  phases AN;
  nominal_voltage 7200.0;
  voltage_A 7200.0+0.0j;
}

object node {
  name R1_12_47_2_node_139;
  phases AN;
  nominal_voltage 7200.0;
  voltage_A 7200.0+0.0j;
}

object node {
  name R1_12_47_2_node_140;
  phases AN;
  nominal_voltage 7200.0;
  voltage_A 7200.0+0.0j;
}

object node {
  name R1_12_47_2_node_126;
  phases AN;
  nominal_voltage 7200.0;
  voltage_A 7200.0+0.0j;
}

object node {
  name R1_12_47_2_node_141;
  phases AN;
  nominal_voltage 7200.0;
  voltage_A 7200.0+0.0j;
}

object node {
  name R1_12_47_2_node_142;
  phases AN;
  nominal_voltage 7200.0;
  voltage_A 7200.0+0.0j;
}

object node {
  name R1_12_47_2_node_144;
  phases AN;
  nominal_voltage 7200.0;
  voltage_A 7200.0+0.0j;
}

object node {
  name R1_12_47_2_node_145;
  phases AN;
  nominal_voltage 7200.0;
  voltage_A 7200.0+0.0j;
}

object node {
  name R1_12_47_2_node_148;
  phases AN;
  nominal_voltage 7200.0;
  voltage_A 7200.0+0.0j;
}

object node {
  name R1_12_47_2_node_308;
  phases AN;
  nominal_voltage 7200.0;
  voltage_A 7200.0+0.0j;
}

object node {
  name R1_12_47_2_node_150;
  phases AN;
  nominal_voltage 7200.0;
  voltage_A 7200.0+0.0j;
}

object node {
  name R1_12_47_2_node_164;
  phases CN;
  nominal_voltage 7200.0;
  voltage_C -3600.00+6235.38j;
}

object node {
  name R1_12_47_2_node_165;
  phases CN;
  nominal_voltage 7200.0;
  voltage_C -3600.00+6235.38j;
}

object node {
  name R1_12_47_2_node_166;
  phases CN;
  nominal_voltage 7200.0;
  voltage_C -3600.00+6235.38j;
}

object node {
  name R1_12_47_2_node_168;
  phases CN;
  nominal_voltage 7200.0;
  voltage_C -3600.00+6235.38j;
}

object node {
  name R1_12_47_2_node_184;
  phases BCN;
  nominal_voltage 7200.0;
  voltage_B -3600.00-6235.38j;
  voltage_C -3600.00+6235.38j;
}

object node {
  name R1_12_47_2_node_334;
  phases BN;
  nominal_voltage 7200.0;
  voltage_B -3600.00-6235.38j;
}

object node {
  name R1_12_47_2_node_185;
  phases BCN;
  nominal_voltage 7200.0;
  voltage_B -3600.00-6235.38j;
  voltage_C -3600.00+6235.38j;
}

object node {
  name R1_12_47_2_node_186;
  phases CN;
  nominal_voltage 7200.0;
  voltage_C -3600.00+6235.38j;
}

object node {
  name R1_12_47_2_node_187;
  phases BCN;
  nominal_voltage 7200.0;
  voltage_B -3600.00-6235.38j;
  voltage_C -3600.00+6235.38j;
}

object node {
  name R1_12_47_2_node_188;
  phases CN;
  nominal_voltage 7200.0;
  voltage_C -3600.00+6235.38j;
}

object node {
  name R1_12_47_2_node_189;
  phases BCN;
  nominal_voltage 7200.0;
  voltage_B -3600.00-6235.38j;
  voltage_C -3600.00+6235.38j;
}

object node {
  name R1_12_47_2_node_190;
  phases CN;
  nominal_voltage 7200.0;
  voltage_C -3600.00+6235.38j;
}

object node {
  name R1_12_47_2_node_208;
  phases BCN;
  nominal_voltage 7200.0;
  voltage_B -3600.00-6235.38j;
  voltage_C -3600.00+6235.38j;
}

object node {
  name R1_12_47_2_node_209;
  phases BN;
  nominal_voltage 7200.0;
  voltage_B -3600.00-6235.38j;
}

object node {
  name R1_12_47_2_node_210;
  phases CN;
  nominal_voltage 7200.0;
  voltage_C -3600.00+6235.38j;
}

object node {
  name R1_12_47_2_node_211;
  phases CN;
  nominal_voltage 7200.0;
  voltage_C -3600.00+6235.38j;
}

object node {
  name R1_12_47_2_node_215;
  phases BCN;
  nominal_voltage 7200.0;
  voltage_B -3600.00-6235.38j;
  voltage_C -3600.00+6235.38j;
}

object node {
  name R1_12_47_2_node_216;
  phases BCN;
  nominal_voltage 7200.0;
  voltage_B -3600.00-6235.38j;
  voltage_C -3600.00+6235.38j;
}

object node {
  name R1_12_47_2_node_217;
  phases BCN;
  nominal_voltage 7200.0;
  voltage_B -3600.00-6235.38j;
  voltage_C -3600.00+6235.38j;
}

object node {
  name R1_12_47_2_node_335;
  phases CN;
  nominal_voltage 7200.0;
  voltage_C -3600.00+6235.38j;
}

object node {
  name R1_12_47_2_node_320;
  phases BCN;
  nominal_voltage 7200.0;
  voltage_B -3600.00-6235.38j;
  voltage_C -3600.00+6235.38j;
}

object node {
  name R1_12_47_2_node_222;
  phases BN;
  nominal_voltage 7200.0;
  voltage_B -3600.00-6235.38j;
}

object node {
  name R1_12_47_2_node_223;
  phases BN;
  nominal_voltage 7200.0;
  voltage_B -3600.00-6235.38j;
}

object node {
  name R1_12_47_2_node_232;
  phases BN;
  nominal_voltage 7200.0;
  voltage_B -3600.00-6235.38j;
}

object node {
  name R1_12_47_2_node_233;
  phases BN;
  nominal_voltage 7200.0;
  voltage_B -3600.00-6235.38j;
}

object node {
  name R1_12_47_2_node_235;
  phases BN;
  nominal_voltage 7200.0;
  voltage_B -3600.00-6235.38j;
}

object node {
  name R1_12_47_2_node_236;
  phases BN;
  nominal_voltage 7200.0;
  voltage_B -3600.00-6235.38j;
}

object node {
  name R1_12_47_2_node_238;
  phases CN;
  nominal_voltage 7200.0;
  voltage_C -3600.00+6235.38j;
}

object node {
  name R1_12_47_2_node_239;
  phases CN;
  nominal_voltage 7200.0;
  voltage_C -3600.00+6235.38j;
}

object node {
  name R1_12_47_2_node_240;
  phases CN;
  nominal_voltage 7200.0;
  voltage_C -3600.00+6235.38j;
}

object node {
  name R1_12_47_2_node_242;
  phases CN;
  nominal_voltage 7200.0;
  voltage_C -3600.00+6235.38j;
}

object node {
  name R1_12_47_2_node_243;
  phases CN;
  nominal_voltage 7200.0;
  voltage_C -3600.00+6235.38j;
}

object node {
  name R1_12_47_2_node_251;
  phases CN;
  nominal_voltage 7200.0;
  voltage_C -3600.00+6235.38j;
}

object node {
  name R1_12_47_2_node_252;
  phases CN;
  nominal_voltage 7200.0;
  voltage_C -3600.00+6235.38j;
}

object node {
  name R1_12_47_2_node_254;
  phases BN;
  nominal_voltage 7200.0;
  voltage_B -3600.00-6235.38j;
}

object node {
  name R1_12_47_2_node_255;
  phases BN;
  nominal_voltage 7200.0;
  voltage_B -3600.00-6235.38j;
}

object node {
  name R1_12_47_2_node_259;
  phases BN;
  nominal_voltage 7200.0;
  voltage_B -3600.00-6235.38j;
}

object node {
  name R1_12_47_2_node_310;
  phases BN;
  nominal_voltage 7200.0;
  voltage_B -3600.00-6235.38j;
}

object node {
  name R1_12_47_2_node_265;
  phases BCN;
  nominal_voltage 7200.0;
  voltage_B -3600.00-6235.38j;
  voltage_C -3600.00+6235.38j;
}

object node {
  name R1_12_47_2_node_266;
  phases CN;
  nominal_voltage 7200.0;
  voltage_C -3600.00+6235.38j;
}

object node {
  name R1_12_47_2_node_267;
  phases BCN;
  nominal_voltage 7200.0;
  voltage_B -3600.00-6235.38j;
  voltage_C -3600.00+6235.38j;
}

object node {
  name R1_12_47_2_node_268;
  phases CN;
  nominal_voltage 7200.0;
  voltage_C -3600.00+6235.38j;
}

object node {
  name R1_12_47_2_node_272;
  phases BN;
  nominal_voltage 7200.0;
  voltage_B -3600.00-6235.38j;
}

object node {
  name R1_12_47_2_node_273;
  phases BN;
  nominal_voltage 7200.0;
  voltage_B -3600.00-6235.38j;
}

object node {
  name R1_12_47_2_node_275;
  phases BN;
  nominal_voltage 7200.0;
  voltage_B -3600.00-6235.38j;
}

object node {
  name R1_12_47_2_node_276;
  phases BN;
  nominal_voltage 7200.0;
  voltage_B -3600.00-6235.38j;
}

object node {
  name R1_12_47_2_node_117;
  phases BN;
  nominal_voltage 7200.0;
  voltage_B -3600.00-6235.38j;
}

object node {
  name R1_12_47_2_node_307;
  phases BN;
  nominal_voltage 7200.0;
  voltage_B -3600.00-6235.38j;
}

object node {
  name R1_12_47_2_node_315;
  phases BN;
  nominal_voltage 7200.0;
  voltage_B -3600.00-6235.38j;
}

object node {
  name R1_12_47_2_node_316;
  phases BN;
  nominal_voltage 7200.0;
  voltage_B -3600.00-6235.38j;
}

object node {
  name R1_12_47_2_node_106;
  phases BN;
  nominal_voltage 7200.0;
  voltage_B -3600.00-6235.38j;
}

object node {
  name R1_12_47_2_node_318;
  phases BN;
  nominal_voltage 7200.0;
  voltage_B -3600.00-6235.38j;
}

object node {
  name R1_12_47_2_node_321;
  phases BN;
  nominal_voltage 7200.0;
  voltage_B -3600.00-6235.38j;
}

object node {
  name R1_12_47_2_node_329;
  phases AN;
  nominal_voltage 7200.0;
  voltage_A 7200.0+0.0j;
}

object node {
  name R1_12_47_2_node_331;
  phases AN;
  nominal_voltage 7200.0;
  voltage_A 7200.0+0.0j;
}

object node {
  name R1_12_47_2_node_294;
  parent R1_12_47_2_meter_14;
  phases ABCN;
  nominal_voltage 7200.0;
  voltage_A 7200.0+0.0j;
  voltage_B -3600.00-6235.38j;
  voltage_C -3600.00+6235.38j;
}

object node {
  name R1_12_47_2_node_1;
  phases ABCN;
  nominal_voltage 7200.0;
  voltage_A 7200.0+0.0j;
  voltage_B -3600.00-6235.38j;
  voltage_C -3600.00+6235.38j;
}

object node {
  name R1_12_47_2_node_54;
  phases ABCN;
  nominal_voltage 7200.0;
  voltage_A 7200.0+0.0j;
  voltage_B -3600.00-6235.38j;
  voltage_C -3600.00+6235.38j;
}

object node {
  name R1_12_47_2_node_55;
  phases ABCN;
  nominal_voltage 7200.0;
  voltage_A 7200.0+0.0j;
  voltage_B -3600.00-6235.38j;
  voltage_C -3600.00+6235.38j;
}

object node {
  name R1_12_47_2_node_56;
  phases ABCN;
  nominal_voltage 7200.0;
  voltage_A 7200.0+0.0j;
  voltage_B -3600.00-6235.38j;
  voltage_C -3600.00+6235.38j;
}

object node {
  name R1_12_47_2_node_293;
  phases ABCN;
  nominal_voltage 7200.0;
  voltage_A 7200.0+0.0j;
  voltage_B -3600.00-6235.38j;
  voltage_C -3600.00+6235.38j;
}

object node {
  name R1_12_47_2_node_333;
  phases ABCN;
  nominal_voltage 7200.0;
  voltage_A 7200.0+0.0j;
  voltage_B -3600.00-6235.38j;
  voltage_C -3600.00+6235.38j;
}

object node {
  name R1_12_47_2_node_2;
  phases ABCN;
  nominal_voltage 7200.0;
  voltage_A 7200.0+0.0j;
  voltage_B -3600.00-6235.38j;
  voltage_C -3600.00+6235.38j;
}

object node {
  name R1_12_47_2_node_3;
  phases ABCN;
  nominal_voltage 7200.0;
  voltage_A 7200.0+0.0j;
  voltage_B -3600.00-6235.38j;
  voltage_C -3600.00+6235.38j;
}

object node {
  name R1_12_47_2_node_9;
  phases AN;
  nominal_voltage 7200.0;
  voltage_A 7200.0+0.0j;
}

object node {
  name R1_12_47_2_node_14;
  phases AN;
  nominal_voltage 7200.0;
  voltage_A 7200.0+0.0j;
}

object node {
  name R1_12_47_2_node_15;
  phases AN;
  nominal_voltage 7200.0;
  voltage_A 7200.0+0.0j;
}

object node {
  name R1_12_47_2_node_16;
  phases AN;
  nominal_voltage 7200.0;
  voltage_A 7200.0+0.0j;
}

object node {
  name R1_12_47_2_node_17;
  phases ABCN;
  nominal_voltage 7200.0;
  voltage_A 7200.0+0.0j;
  voltage_B -3600.00-6235.38j;
  voltage_C -3600.00+6235.38j;
}

object node {
  name R1_12_47_2_node_20;
  phases CN;
  nominal_voltage 7200.0;
  voltage_C -3600.00+6235.38j;
}

object node {
  name R1_12_47_2_node_23;
  phases BN;
  nominal_voltage 7200.0;
  voltage_B -3600.00-6235.38j;
}

object node {
  name R1_12_47_2_node_26;
  phases AN;
  nominal_voltage 7200.0;
  voltage_A 7200.0+0.0j;
}

object node {
  name R1_12_47_2_node_27;
  phases AN;
  nominal_voltage 7200.0;
  voltage_A 7200.0+0.0j;
}

object node {
  name R1_12_47_2_node_30;
  phases BCN;
  nominal_voltage 7200.0;
  voltage_B -3600.00-6235.38j;
  voltage_C -3600.00+6235.38j;
}

object node {
  name R1_12_47_2_node_31;
  phases CN;
  nominal_voltage 7200.0;
  voltage_C -3600.00+6235.38j;
}

object node {
  name R1_12_47_2_node_32;
  phases BCN;
  nominal_voltage 7200.0;
  voltage_B -3600.00-6235.38j;
  voltage_C -3600.00+6235.38j;
}

object node {
  name R1_12_47_2_node_38;
  phases CN;
  nominal_voltage 7200.0;
  voltage_C -3600.00+6235.38j;
}

object node {
  name R1_12_47_2_node_47;
  phases CN;
  nominal_voltage 7200.0;
  voltage_C -3600.00+6235.38j;
}

object node {
  name R1_12_47_2_node_48;
  phases CN;
  nominal_voltage 7200.0;
  voltage_C -3600.00+6235.38j;
}

object node {
  name R1_12_47_2_node_59;
  phases BN;
  nominal_voltage 7200.0;
  voltage_B -3600.00-6235.38j;
}

object node {
  name R1_12_47_2_node_60;
  phases BN;
  nominal_voltage 7200.0;
  voltage_B -3600.00-6235.38j;
}

object node {
  name R1_12_47_2_node_69;
  phases BN;
  nominal_voltage 7200.0;
  voltage_B -3600.00-6235.38j;
}

object node {
  name R1_12_47_2_node_70;
  phases BN;
  nominal_voltage 7200.0;
  voltage_B -3600.00-6235.38j;
}

object node {
  name R1_12_47_2_node_71;
  phases BN;
  nominal_voltage 7200.0;
  voltage_B -3600.00-6235.38j;
}

object node {
  name R1_12_47_2_node_72;
  phases BN;
  nominal_voltage 7200.0;
  voltage_B -3600.00-6235.38j;
}

object node {
  name R1_12_47_2_node_77;
  phases BN;
  nominal_voltage 7200.0;
  voltage_B -3600.00-6235.38j;
}

object node {
  name R1_12_47_2_node_80;
  phases BN;
  nominal_voltage 7200.0;
  voltage_B -3600.00-6235.38j;
}

object node {
  name R1_12_47_2_node_88;
  phases BN;
  nominal_voltage 7200.0;
  voltage_B -3600.00-6235.38j;
}

object node {
  name R1_12_47_2_node_94;
  phases BN;
  nominal_voltage 7200.0;
  voltage_B -3600.00-6235.38j;
}

object node {
  name R1_12_47_2_node_98;
  phases BN;
  nominal_voltage 7200.0;
  voltage_B -3600.00-6235.38j;
}

object node {
  name R1_12_47_2_node_104;
  phases BN;
  nominal_voltage 7200.0;
  voltage_B -3600.00-6235.38j;
}

object node {
  name R1_12_47_2_node_120;
  phases ABN;
  nominal_voltage 7200.0;
  voltage_A 7200.0+0.0j;
  voltage_B -3600.00-6235.38j;
}

object node {
  name R1_12_47_2_node_121;
  phases ABN;
  nominal_voltage 7200.0;
  voltage_A 7200.0+0.0j;
  voltage_B -3600.00-6235.38j;
}

object node {
  name R1_12_47_2_node_124;
  phases ABN;
  nominal_voltage 7200.0;
  voltage_A 7200.0+0.0j;
  voltage_B -3600.00-6235.38j;
}

object node {
  name R1_12_47_2_node_125;
  phases ABN;
  nominal_voltage 7200.0;
  voltage_A 7200.0+0.0j;
  voltage_B -3600.00-6235.38j;
}

object node {
  name R1_12_47_2_node_127;
  phases AN;
  nominal_voltage 7200.0;
  voltage_A 7200.0+0.0j;
}

object node {
  name R1_12_47_2_node_131;
  phases AN;
  nominal_voltage 7200.0;
  voltage_A 7200.0+0.0j;
}

object node {
  name R1_12_47_2_node_327;
  phases AN;
  nominal_voltage 7200.0;
  voltage_A 7200.0+0.0j;
}

object node {
  name R1_12_47_2_node_330;
  phases AN;
  nominal_voltage 7200.0;
  voltage_A 7200.0+0.0j;
}

object node {
  name R1_12_47_2_node_137;
  phases AN;
  nominal_voltage 7200.0;
  voltage_A 7200.0+0.0j;
}

object node {
  name R1_12_47_2_node_138;
  phases AN;
  nominal_voltage 7200.0;
  voltage_A 7200.0+0.0j;
}

object node {
  name R1_12_47_2_node_143;
  phases AN;
  nominal_voltage 7200.0;
  voltage_A 7200.0+0.0j;
}

object node {
  name R1_12_47_2_node_146;
  phases AN;
  nominal_voltage 7200.0;
  voltage_A 7200.0+0.0j;
}

object node {
  name R1_12_47_2_node_167;
  phases CN;
  nominal_voltage 7200.0;
  voltage_C -3600.00+6235.38j;
}

object node {
  name R1_12_47_2_node_183;
  phases ABCN;
  nominal_voltage 7200.0;
  voltage_A 7200.0+0.0j;
  voltage_B -3600.00-6235.38j;
  voltage_C -3600.00+6235.38j;
}

object node {
  name R1_12_47_2_node_220;
  phases BCN;
  nominal_voltage 7200.0;
  voltage_B -3600.00-6235.38j;
  voltage_C -3600.00+6235.38j;
}

object node {
  name R1_12_47_2_node_224;
  phases BN;
  nominal_voltage 7200.0;
  voltage_B -3600.00-6235.38j;
}

object node {
  name R1_12_47_2_node_221;
  phases BN;
  nominal_voltage 7200.0;
  voltage_B -3600.00-6235.38j;
}

object node {
  name R1_12_47_2_node_227;
  phases BN;
  nominal_voltage 7200.0;
  voltage_B -3600.00-6235.38j;
}

object node {
  name R1_12_47_2_node_231;
  phases BCN;
  nominal_voltage 7200.0;
  voltage_B -3600.00-6235.38j;
  voltage_C -3600.00+6235.38j;
}

object node {
  name R1_12_47_2_node_234;
  phases BCN;
  nominal_voltage 7200.0;
  voltage_B -3600.00-6235.38j;
  voltage_C -3600.00+6235.38j;
}

object node {
  name R1_12_47_2_node_237;
  phases BCN;
  nominal_voltage 7200.0;
  voltage_B -3600.00-6235.38j;
  voltage_C -3600.00+6235.38j;
}

object node {
  name R1_12_47_2_node_241;
  phases BCN;
  nominal_voltage 7200.0;
  voltage_B -3600.00-6235.38j;
  voltage_C -3600.00+6235.38j;
}

object node {
  name R1_12_47_2_node_250;
  phases BCN;
  nominal_voltage 7200.0;
  voltage_B -3600.00-6235.38j;
  voltage_C -3600.00+6235.38j;
}

object node {
  name R1_12_47_2_node_253;
  phases BCN;
  nominal_voltage 7200.0;
  voltage_B -3600.00-6235.38j;
  voltage_C -3600.00+6235.38j;
}

object node {
  name R1_12_47_2_node_258;
  phases BCN;
  nominal_voltage 7200.0;
  voltage_B -3600.00-6235.38j;
  voltage_C -3600.00+6235.38j;
}

object node {
  name R1_12_47_2_node_263;
  phases BCN;
  nominal_voltage 7200.0;
  voltage_B -3600.00-6235.38j;
  voltage_C -3600.00+6235.38j;
}

object node {
  name R1_12_47_2_node_264;
  phases BCN;
  nominal_voltage 7200.0;
  voltage_B -3600.00-6235.38j;
  voltage_C -3600.00+6235.38j;
}

object node {
  name R1_12_47_2_node_271;
  phases BN;
  nominal_voltage 7200.0;
  voltage_B -3600.00-6235.38j;
}

object node {
  name R1_12_47_2_node_274;
  phases BN;
  nominal_voltage 7200.0;
  voltage_B -3600.00-6235.38j;
}

object node {
  name R1_12_47_2_node_291;
  phases BN;
  nominal_voltage 7200.0;
  voltage_B -3600.00-6235.38j;
}

object node {
  name R1_12_47_2_node_313;
  phases BN;
  nominal_voltage 7200.0;
  voltage_B -3600.00-6235.38j;
}

object node {
  name R1_12_47_2_node_314;
  phases BN;
  nominal_voltage 7200.0;
  voltage_B -3600.00-6235.38j;
}

object node {
  name R1_12_47_2_node_218;
  phases BCN;
  nominal_voltage 7200.0;
  voltage_B -3600.00-6235.38j;
  voltage_C -3600.00+6235.38j;
}

object node {
  name R1_12_47_2_node_325;
  phases AN;
  nominal_voltage 7200.0;
  voltage_A 7200.0+0.0j;
}

object node {
  name R1_12_47_2_node_326;
  phases AN;
  nominal_voltage 7200.0;
  voltage_A 7200.0+0.0j;
}

object node {
  name R1_12_47_2_node_328;
  phases AN;
  nominal_voltage 7200.0;
  voltage_A 7200.0+0.0j;
}

object node {
  name R1_12_47_2_node_63;
  phases BN;
  nominal_voltage 7200.0;
  voltage_B -3600.00-6235.38j;
}

object node {
  name R1_12_47_2_node_64;
  phases BN;
  nominal_voltage 7200.0;
  voltage_B -3600.00-6235.38j;
}

object node {
  name R1_12_47_2_node_296;
  phases BN;
  nominal_voltage 7200.0;
  voltage_B -3600.00-6235.38j;
}

object node {
  name R1_12_47_2_node_66;
  phases BN;
  nominal_voltage 7200.0;
  voltage_B -3600.00-6235.38j;
}

object node {
  name R1_12_47_2_node_87;
  phases BN;
  nominal_voltage 7200.0;
  voltage_B -3600.00-6235.38j;
}

object node {
  name R1_12_47_2_node_91;
  phases BN;
  nominal_voltage 7200.0;
  voltage_B -3600.00-6235.38j;
}

object node {
  name R1_12_47_2_node_92;
  phases BN;
  nominal_voltage 7200.0;
  voltage_B -3600.00-6235.38j;
}

object node {
  name R1_12_47_2_node_130;
  phases AN;
  nominal_voltage 7200.0;
  voltage_A 7200.0+0.0j;
}

object node {
  name R1_12_47_2_node_132;
  phases AN;
  nominal_voltage 7200.0;
  voltage_A 7200.0+0.0j;
}

object node {
  name R1_12_47_2_node_134;
  phases AN;
  nominal_voltage 7200.0;
  voltage_A 7200.0+0.0j;
}

object node {
  name R1_12_47_2_node_301;
  phases AN;
  nominal_voltage 7200.0;
  voltage_A 7200.0+0.0j;
}

object node {
  name R1_12_47_2_node_147;
  phases AN;
  nominal_voltage 7200.0;
  voltage_A 7200.0+0.0j;
}

object node {
  name R1_12_47_2_node_151;
  phases AN;
  nominal_voltage 7200.0;
  voltage_A 7200.0+0.0j;
}

object node {
  name R1_12_47_2_node_152;
  phases AN;
  nominal_voltage 7200.0;
  voltage_A 7200.0+0.0j;
}

object node {
  name R1_12_47_2_node_153;
  phases AN;
  nominal_voltage 7200.0;
  voltage_A 7200.0+0.0j;
}

object node {
  name R1_12_47_2_node_154;
  phases AN;
  nominal_voltage 7200.0;
  voltage_A 7200.0+0.0j;
}

object node {
  name R1_12_47_2_node_155;
  phases AN;
  nominal_voltage 7200.0;
  voltage_A 7200.0+0.0j;
}

object node {
  name R1_12_47_2_node_156;
  phases AN;
  nominal_voltage 7200.0;
  voltage_A 7200.0+0.0j;
}

object node {
  name R1_12_47_2_node_157;
  phases AN;
  nominal_voltage 7200.0;
  voltage_A 7200.0+0.0j;
}

object node {
  name R1_12_47_2_node_158;
  phases AN;
  nominal_voltage 7200.0;
  voltage_A 7200.0+0.0j;
}

object node {
  name R1_12_47_2_node_159;
  phases AN;
  nominal_voltage 7200.0;
  voltage_A 7200.0+0.0j;
}

object node {
  name R1_12_47_2_node_160;
  phases AN;
  nominal_voltage 7200.0;
  voltage_A 7200.0+0.0j;
}

object node {
  name R1_12_47_2_node_161;
  phases AN;
  nominal_voltage 7200.0;
  voltage_A 7200.0+0.0j;
}

object node {
  name R1_12_47_2_node_162;
  phases AN;
  nominal_voltage 7200.0;
  voltage_A 7200.0+0.0j;
}

object node {
  name R1_12_47_2_node_163;
  phases AN;
  nominal_voltage 7200.0;
  voltage_A 7200.0+0.0j;
}

object node {
  name R1_12_47_2_node_169;
  phases CN;
  nominal_voltage 7200.0;
  voltage_C -3600.00+6235.38j;
}

object node {
  name R1_12_47_2_node_170;
  phases CN;
  nominal_voltage 7200.0;
  voltage_C -3600.00+6235.38j;
}

object node {
  name R1_12_47_2_node_171;
  phases CN;
  nominal_voltage 7200.0;
  voltage_C -3600.00+6235.38j;
}

object node {
  name R1_12_47_2_node_172;
  phases CN;
  nominal_voltage 7200.0;
  voltage_C -3600.00+6235.38j;
}

object node {
  name R1_12_47_2_node_173;
  phases CN;
  nominal_voltage 7200.0;
  voltage_C -3600.00+6235.38j;
}

object node {
  name R1_12_47_2_node_174;
  phases CN;
  nominal_voltage 7200.0;
  voltage_C -3600.00+6235.38j;
}

object node {
  name R1_12_47_2_node_175;
  phases CN;
  nominal_voltage 7200.0;
  voltage_C -3600.00+6235.38j;
}

object node {
  name R1_12_47_2_node_176;
  phases CN;
  nominal_voltage 7200.0;
  voltage_C -3600.00+6235.38j;
}

object node {
  name R1_12_47_2_node_177;
  phases CN;
  nominal_voltage 7200.0;
  voltage_C -3600.00+6235.38j;
}

object node {
  name R1_12_47_2_node_178;
  phases CN;
  nominal_voltage 7200.0;
  voltage_C -3600.00+6235.38j;
}

object node {
  name R1_12_47_2_node_179;
  phases CN;
  nominal_voltage 7200.0;
  voltage_C -3600.00+6235.38j;
}

object node {
  name R1_12_47_2_node_180;
  phases CN;
  nominal_voltage 7200.0;
  voltage_C -3600.00+6235.38j;
}

object node {
  name R1_12_47_2_node_181;
  phases CN;
  nominal_voltage 7200.0;
  voltage_C -3600.00+6235.38j;
}

object node {
  name R1_12_47_2_node_182;
  phases CN;
  nominal_voltage 7200.0;
  voltage_C -3600.00+6235.38j;
}

object node {
  name R1_12_47_2_node_191;
  phases CN;
  nominal_voltage 7200.0;
  voltage_C -3600.00+6235.38j;
}

object node {
  name R1_12_47_2_node_192;
  phases CN;
  nominal_voltage 7200.0;
  voltage_C -3600.00+6235.38j;
}

object node {
  name R1_12_47_2_node_193;
  phases CN;
  nominal_voltage 7200.0;
  voltage_C -3600.00+6235.38j;
}

object node {
  name R1_12_47_2_node_195;
  phases CN;
  nominal_voltage 7200.0;
  voltage_C -3600.00+6235.38j;
}

object node {
  name R1_12_47_2_node_194;
  phases CN;
  nominal_voltage 7200.0;
  voltage_C -3600.00+6235.38j;
}

object node {
  name R1_12_47_2_node_196;
  phases CN;
  nominal_voltage 7200.0;
  voltage_C -3600.00+6235.38j;
}

object node {
  name R1_12_47_2_node_197;
  phases CN;
  nominal_voltage 7200.0;
  voltage_C -3600.00+6235.38j;
}

object node {
  name R1_12_47_2_node_198;
  phases CN;
  nominal_voltage 7200.0;
  voltage_C -3600.00+6235.38j;
}

object node {
  name R1_12_47_2_node_199;
  phases CN;
  nominal_voltage 7200.0;
  voltage_C -3600.00+6235.38j;
}

object node {
  name R1_12_47_2_node_306;
  phases CN;
  nominal_voltage 7200.0;
  voltage_C -3600.00+6235.38j;
}

object node {
  name R1_12_47_2_node_200;
  phases CN;
  nominal_voltage 7200.0;
  voltage_C -3600.00+6235.38j;
}

object node {
  name R1_12_47_2_node_201;
  phases CN;
  nominal_voltage 7200.0;
  voltage_C -3600.00+6235.38j;
}

object node {
  name R1_12_47_2_node_202;
  phases CN;
  nominal_voltage 7200.0;
  voltage_C -3600.00+6235.38j;
}

object node {
  name R1_12_47_2_node_203;
  phases CN;
  nominal_voltage 7200.0;
  voltage_C -3600.00+6235.38j;
}

object node {
  name R1_12_47_2_node_204;
  phases CN;
  nominal_voltage 7200.0;
  voltage_C -3600.00+6235.38j;
}

object node {
  name R1_12_47_2_node_205;
  phases CN;
  nominal_voltage 7200.0;
  voltage_C -3600.00+6235.38j;
}

object node {
  name R1_12_47_2_node_206;
  phases CN;
  nominal_voltage 7200.0;
  voltage_C -3600.00+6235.38j;
}

object node {
  name R1_12_47_2_node_207;
  phases CN;
  nominal_voltage 7200.0;
  voltage_C -3600.00+6235.38j;
}

object node {
  name R1_12_47_2_node_212;
  phases CN;
  nominal_voltage 7200.0;
  voltage_C -3600.00+6235.38j;
}

object node {
  name R1_12_47_2_node_213;
  phases CN;
  nominal_voltage 7200.0;
  voltage_C -3600.00+6235.38j;
}

object node {
  name R1_12_47_2_node_214;
  phases CN;
  nominal_voltage 7200.0;
  voltage_C -3600.00+6235.38j;
}

object node {
  name R1_12_47_2_node_219;
  phases BN;
  nominal_voltage 7200.0;
  voltage_B -3600.00-6235.38j;
}

object node {
  name R1_12_47_2_node_225;
  phases BN;
  nominal_voltage 7200.0;
  voltage_B -3600.00-6235.38j;
}

object node {
  name R1_12_47_2_node_226;
  phases BN;
  nominal_voltage 7200.0;
  voltage_B -3600.00-6235.38j;
}

object node {
  name R1_12_47_2_node_228;
  phases BN;
  nominal_voltage 7200.0;
  voltage_B -3600.00-6235.38j;
}

object node {
  name R1_12_47_2_node_229;
  phases BN;
  nominal_voltage 7200.0;
  voltage_B -3600.00-6235.38j;
}

object node {
  name R1_12_47_2_node_230;
  phases BN;
  nominal_voltage 7200.0;
  voltage_B -3600.00-6235.38j;
}

object node {
  name R1_12_47_2_node_244;
  phases CN;
  nominal_voltage 7200.0;
  voltage_C -3600.00+6235.38j;
}

object node {
  name R1_12_47_2_node_245;
  phases CN;
  nominal_voltage 7200.0;
  voltage_C -3600.00+6235.38j;
}

object node {
  name R1_12_47_2_node_246;
  phases CN;
  nominal_voltage 7200.0;
  voltage_C -3600.00+6235.38j;
}

object node {
  name R1_12_47_2_node_247;
  phases CN;
  nominal_voltage 7200.0;
  voltage_C -3600.00+6235.38j;
}

object node {
  name R1_12_47_2_node_248;
  phases CN;
  nominal_voltage 7200.0;
  voltage_C -3600.00+6235.38j;
}

object node {
  name R1_12_47_2_node_249;
  phases CN;
  nominal_voltage 7200.0;
  voltage_C -3600.00+6235.38j;
}

object node {
  name R1_12_47_2_node_256;
  phases BN;
  nominal_voltage 7200.0;
  voltage_B -3600.00-6235.38j;
}

object node {
  name R1_12_47_2_node_257;
  phases BN;
  nominal_voltage 7200.0;
  voltage_B -3600.00-6235.38j;
}

object node {
  name R1_12_47_2_node_260;
  phases BN;
  nominal_voltage 7200.0;
  voltage_B -3600.00-6235.38j;
}

object node {
  name R1_12_47_2_node_261;
  phases BN;
  nominal_voltage 7200.0;
  voltage_B -3600.00-6235.38j;
}

object node {
  name R1_12_47_2_node_262;
  phases BN;
  nominal_voltage 7200.0;
  voltage_B -3600.00-6235.38j;
}

object node {
  name R1_12_47_2_node_269;
  phases BCN;
  nominal_voltage 7200.0;
  voltage_B -3600.00-6235.38j;
  voltage_C -3600.00+6235.38j;
}

object node {
  name R1_12_47_2_node_270;
  phases CN;
  nominal_voltage 7200.0;
  voltage_C -3600.00+6235.38j;
}

object node {
  name R1_12_47_2_node_277;
  phases BN;
  nominal_voltage 7200.0;
  voltage_B -3600.00-6235.38j;
}

object node {
  name R1_12_47_2_node_278;
  phases BN;
  nominal_voltage 7200.0;
  voltage_B -3600.00-6235.38j;
}

object node {
  name R1_12_47_2_node_279;
  phases BN;
  nominal_voltage 7200.0;
  voltage_B -3600.00-6235.38j;
}

object node {
  name R1_12_47_2_node_280;
  phases BN;
  nominal_voltage 7200.0;
  voltage_B -3600.00-6235.38j;
}

object node {
  name R1_12_47_2_node_281;
  phases BN;
  nominal_voltage 7200.0;
  voltage_B -3600.00-6235.38j;
}

object node {
  name R1_12_47_2_node_282;
  phases BN;
  nominal_voltage 7200.0;
  voltage_B -3600.00-6235.38j;
}

object node {
  name R1_12_47_2_node_283;
  phases BN;
  nominal_voltage 7200.0;
  voltage_B -3600.00-6235.38j;
}

object node {
  name R1_12_47_2_node_284;
  phases BN;
  nominal_voltage 7200.0;
  voltage_B -3600.00-6235.38j;
}

object node {
  name R1_12_47_2_node_285;
  phases BN;
  nominal_voltage 7200.0;
  voltage_B -3600.00-6235.38j;
}

object node {
  name R1_12_47_2_node_286;
  phases BN;
  nominal_voltage 7200.0;
  voltage_B -3600.00-6235.38j;
}

object node {
  name R1_12_47_2_node_287;
  phases BN;
  nominal_voltage 7200.0;
  voltage_B -3600.00-6235.38j;
}

object node {
  name R1_12_47_2_node_288;
  phases BN;
  nominal_voltage 7200.0;
  voltage_B -3600.00-6235.38j;
}

object node {
  name R1_12_47_2_node_289;
  phases BN;
  nominal_voltage 7200.0;
  voltage_B -3600.00-6235.38j;
}

object node {
  name R1_12_47_2_node_290;
  phases BN;
  nominal_voltage 7200.0;
  voltage_B -3600.00-6235.38j;
}

object node {
  name R1_12_47_2_node_292;
  phases BN;
  nominal_voltage 7200.0;
  voltage_B -3600.00-6235.38j;
}

object node {
  name R1_12_47_2_node_295;
  phases BN;
  nominal_voltage 7200.0;
  voltage_B -3600.00-6235.38j;
}

object node {
  name R1_12_47_2_node_65;
  phases BN;
  nominal_voltage 7200.0;
  voltage_B -3600.00-6235.38j;
}

object node {
  name R1_12_47_2_node_297;
  phases BN;
  nominal_voltage 7200.0;
  voltage_B -3600.00-6235.38j;
}

object node {
  name R1_12_47_2_node_298;
  phases BN;
  nominal_voltage 7200.0;
  voltage_B -3600.00-6235.38j;
}

object node {
  name R1_12_47_2_node_299;
  phases BN;
  nominal_voltage 7200.0;
  voltage_B -3600.00-6235.38j;
}

object node {
  name R1_12_47_2_node_300;
  phases BN;
  nominal_voltage 7200.0;
  voltage_B -3600.00-6235.38j;
}

object node {
  name R1_12_47_2_node_136;
  phases AN;
  nominal_voltage 7200.0;
  voltage_A 7200.0+0.0j;
}

object node {
  name R1_12_47_2_node_302;
  phases AN;
  nominal_voltage 7200.0;
  voltage_A 7200.0+0.0j;
}

object node {
  name R1_12_47_2_node_303;
  phases AN;
  nominal_voltage 7200.0;
  voltage_A 7200.0+0.0j;
}

object node {
  name R1_12_47_2_node_304;
  phases AN;
  nominal_voltage 7200.0;
  voltage_A 7200.0+0.0j;
}

object node {
  name R1_12_47_2_node_305;
  phases AN;
  nominal_voltage 7200.0;
  voltage_A 7200.0+0.0j;
}

object node {
  name R1_12_47_2_node_149;
  phases AN;
  nominal_voltage 7200.0;
  voltage_A 7200.0+0.0j;
}

object node {
  name R1_12_47_2_node_309;
  phases AN;
  nominal_voltage 7200.0;
  voltage_A 7200.0+0.0j;
}

object node {
  name R1_12_47_2_node_311;
  phases BN;
  nominal_voltage 7200.0;
  voltage_B -3600.00-6235.38j;
}

object node {
  name R1_12_47_2_node_312;
  phases BN;
  nominal_voltage 7200.0;
  voltage_B -3600.00-6235.38j;
}

object node {
  name R1_12_47_2_node_317;
  phases AN;
  nominal_voltage 7200.0;
  voltage_A 7200.0+0.0j;
}

object node {
  name R1_12_47_2_node_319;
  phases BN;
  nominal_voltage 7200.0;
  voltage_B -3600.00-6235.38j;
}

object node {
  name R1_12_47_2_node_322;
  phases AN;
  nominal_voltage 7200.0;
  voltage_A 7200.0+0.0j;
}

object node {
  name R1_12_47_2_node_324;
  phases CN;
  nominal_voltage 7200.0;
  voltage_C -3600.00+6235.38j;
}

object node {
  name R1_12_47_2_node_332;
  phases ABCN;
  nominal_voltage 7200.0;
  voltage_A 7200.0+0.0j;
  voltage_B -3600.00-6235.38j;
  voltage_C -3600.00+6235.38j;
}

object triplex_node {
  name R1_12_47_2_tn_1;
  phases AS;
  nominal_voltage 120.0;
  voltage_1 120.0+0.0j;
  voltage_2 120.0+0.0j;
}

object triplex_meter {
  name R1_12_47_2_tm_1;
  phases AS;
  nominal_voltage 120.0;
  voltage_1 120.0+0.0j;
  voltage_2 120.0+0.0j;
}

object triplex_node {
  name R1_12_47_2_tn_2;
  phases AS;
  nominal_voltage 120.0;
  voltage_1 120.0+0.0j;
  voltage_2 120.0+0.0j;
}

object triplex_meter {
  name R1_12_47_2_tm_2;
  phases AS;
  nominal_voltage 120.0;
  voltage_1 120.0+0.0j;
  voltage_2 120.0+0.0j;
}

object triplex_node {
  name R1_12_47_2_tn_3;
  phases AS;
  nominal_voltage 120.0;
  voltage_1 120.0+0.0j;
  voltage_2 120.0+0.0j;
}

object triplex_meter {
  name R1_12_47_2_tm_3;
  phases AS;
  nominal_voltage 120.0;
  voltage_1 120.0+0.0j;
  voltage_2 120.0+0.0j;
}

object triplex_node {
  name R1_12_47_2_tn_4;
  phases AS;
  nominal_voltage 120.0;
  voltage_1 120.0+0.0j;
  voltage_2 120.0+0.0j;
}

object triplex_meter {
  name R1_12_47_2_tm_4;
  phases AS;
  nominal_voltage 120.0;
  voltage_1 120.0+0.0j;
  voltage_2 120.0+0.0j;
}

object triplex_node {
  name R1_12_47_2_tn_5;
  phases AS;
  nominal_voltage 120.0;
  voltage_1 120.0+0.0j;
  voltage_2 120.0+0.0j;
}

object triplex_meter {
  name R1_12_47_2_tm_5;
  phases AS;
  nominal_voltage 120.0;
  voltage_1 120.0+0.0j;
  voltage_2 120.0+0.0j;
}

object triplex_node {
  name R1_12_47_2_tn_6;
  phases AS;
  nominal_voltage 120.0;
  voltage_1 120.0+0.0j;
  voltage_2 120.0+0.0j;
}

object triplex_meter {
  name R1_12_47_2_tm_6;
  phases AS;
  nominal_voltage 120.0;
  voltage_1 120.0+0.0j;
  voltage_2 120.0+0.0j;
}

object triplex_node {
  name R1_12_47_2_tn_7;
  phases BS;
  nominal_voltage 120.0;
  voltage_1 -60.00-103.92j;
  voltage_2 -60.00-103.92j;
}

object triplex_meter {
  name R1_12_47_2_tm_7;
  phases BS;
  nominal_voltage 120.0;
  voltage_1 -60.00-103.92j;
  voltage_2 -60.00-103.92j;
}

object triplex_node {
  name R1_12_47_2_tn_8;
  phases CS;
  nominal_voltage 120.0;
  voltage_1 -60.00+103.92j;
  voltage_2 -60.00+103.92j;
}

object triplex_meter {
  name R1_12_47_2_tm_8;
  phases CS;
  nominal_voltage 120.0;
  voltage_1 -60.00+103.92j;
  voltage_2 -60.00+103.92j;
}

object triplex_node {
  name R1_12_47_2_tn_9;
  phases AS;
  nominal_voltage 120.0;
  voltage_1 120.0+0.0j;
  voltage_2 120.0+0.0j;
}

object triplex_meter {
  name R1_12_47_2_tm_9;
  phases AS;
  nominal_voltage 120.0;
  voltage_1 120.0+0.0j;
  voltage_2 120.0+0.0j;
}

object triplex_node {
  name R1_12_47_2_tn_10;
  phases BS;
  nominal_voltage 120.0;
  voltage_1 -60.00-103.92j;
  voltage_2 -60.00-103.92j;
}

object triplex_meter {
  name R1_12_47_2_tm_10;
  phases BS;
  nominal_voltage 120.0;
  voltage_1 -60.00-103.92j;
  voltage_2 -60.00-103.92j;
}

object triplex_node {
  name R1_12_47_2_tn_11;
  phases CS;
  nominal_voltage 120.0;
  voltage_1 -60.00+103.92j;
  voltage_2 -60.00+103.92j;
}

object triplex_meter {
  name R1_12_47_2_tm_11;
  phases CS;
  nominal_voltage 120.0;
  voltage_1 -60.00+103.92j;
  voltage_2 -60.00+103.92j;
}

object triplex_node {
  name R1_12_47_2_tn_12;
  phases CS;
  nominal_voltage 120.0;
  voltage_1 -60.00+103.92j;
  voltage_2 -60.00+103.92j;
}

object triplex_meter {
  name R1_12_47_2_tm_12;
  phases CS;
  nominal_voltage 120.0;
  voltage_1 -60.00+103.92j;
  voltage_2 -60.00+103.92j;
}

object triplex_node {
  name R1_12_47_2_tn_13;
  phases AS;
  nominal_voltage 120.0;
  voltage_1 120.0+0.0j;
  voltage_2 120.0+0.0j;
}

object triplex_meter {
  name R1_12_47_2_tm_13;
  phases AS;
  nominal_voltage 120.0;
  voltage_1 120.0+0.0j;
  voltage_2 120.0+0.0j;
}

object triplex_node {
  name R1_12_47_2_tn_14;
  phases BS;
  nominal_voltage 120.0;
  voltage_1 -60.00-103.92j;
  voltage_2 -60.00-103.92j;
}

object triplex_meter {
  name R1_12_47_2_tm_14;
  phases BS;
  nominal_voltage 120.0;
  voltage_1 -60.00-103.92j;
  voltage_2 -60.00-103.92j;
}

object triplex_node {
  name R1_12_47_2_tn_15;
  phases CS;
  nominal_voltage 120.0;
  voltage_1 -60.00+103.92j;
  voltage_2 -60.00+103.92j;
}

object triplex_meter {
  name R1_12_47_2_tm_15;
  phases CS;
  nominal_voltage 120.0;
  voltage_1 -60.00+103.92j;
  voltage_2 -60.00+103.92j;
}

object triplex_node {
  name R1_12_47_2_tn_16;
  phases BS;
  nominal_voltage 120.0;
  voltage_1 -60.00-103.92j;
  voltage_2 -60.00-103.92j;
}

object triplex_meter {
  name R1_12_47_2_tm_16;
  phases BS;
  nominal_voltage 120.0;
  voltage_1 -60.00-103.92j;
  voltage_2 -60.00-103.92j;
}

object triplex_node {
  name R1_12_47_2_tn_17;
  phases CS;
  nominal_voltage 120.0;
  voltage_1 -60.00+103.92j;
  voltage_2 -60.00+103.92j;
}

object triplex_meter {
  name R1_12_47_2_tm_17;
  phases CS;
  nominal_voltage 120.0;
  voltage_1 -60.00+103.92j;
  voltage_2 -60.00+103.92j;
}

object triplex_node {
  name R1_12_47_2_tn_18;
  phases BS;
  nominal_voltage 120.0;
  voltage_1 -60.00-103.92j;
  voltage_2 -60.00-103.92j;
}

object triplex_meter {
  name R1_12_47_2_tm_18;
  phases BS;
  nominal_voltage 120.0;
  voltage_1 -60.00-103.92j;
  voltage_2 -60.00-103.92j;
}

object triplex_node {
  name R1_12_47_2_tn_19;
  phases CS;
  nominal_voltage 120.0;
  voltage_1 -60.00+103.92j;
  voltage_2 -60.00+103.92j;
}

object triplex_meter {
  name R1_12_47_2_tm_19;
  phases CS;
  nominal_voltage 120.0;
  voltage_1 -60.00+103.92j;
  voltage_2 -60.00+103.92j;
}

object triplex_node {
  name R1_12_47_2_tn_20;
  phases BS;
  nominal_voltage 120.0;
  voltage_1 -60.00-103.92j;
  voltage_2 -60.00-103.92j;
}

object triplex_meter {
  name R1_12_47_2_tm_20;
  phases BS;
  nominal_voltage 120.0;
  voltage_1 -60.00-103.92j;
  voltage_2 -60.00-103.92j;
}

object triplex_node {
  name R1_12_47_2_tn_21;
  phases CS;
  nominal_voltage 120.0;
  voltage_1 -60.00+103.92j;
  voltage_2 -60.00+103.92j;
}

object triplex_meter {
  name R1_12_47_2_tm_21;
  phases CS;
  nominal_voltage 120.0;
  voltage_1 -60.00+103.92j;
  voltage_2 -60.00+103.92j;
}

object triplex_node {
  name R1_12_47_2_tn_22;
  phases BS;
  nominal_voltage 120.0;
  voltage_1 -60.00-103.92j;
  voltage_2 -60.00-103.92j;
}

object triplex_meter {
  name R1_12_47_2_tm_22;
  phases BS;
  nominal_voltage 120.0;
  voltage_1 -60.00-103.92j;
  voltage_2 -60.00-103.92j;
}

object triplex_node {
  name R1_12_47_2_tn_23;
  phases CS;
  nominal_voltage 120.0;
  voltage_1 -60.00+103.92j;
  voltage_2 -60.00+103.92j;
}

object triplex_meter {
  name R1_12_47_2_tm_23;
  phases CS;
  nominal_voltage 120.0;
  voltage_1 -60.00+103.92j;
  voltage_2 -60.00+103.92j;
}

object triplex_node {
  name R1_12_47_2_tn_24;
  phases CS;
  nominal_voltage 120.0;
  voltage_1 -60.00+103.92j;
  voltage_2 -60.00+103.92j;
}

object triplex_meter {
  name R1_12_47_2_tm_24;
  phases CS;
  nominal_voltage 120.0;
  voltage_1 -60.00+103.92j;
  voltage_2 -60.00+103.92j;
}

object triplex_node {
  name R1_12_47_2_tn_25;
  phases CS;
  nominal_voltage 120.0;
  voltage_1 -60.00+103.92j;
  voltage_2 -60.00+103.92j;
}

object triplex_meter {
  name R1_12_47_2_tm_25;
  phases CS;
  nominal_voltage 120.0;
  voltage_1 -60.00+103.92j;
  voltage_2 -60.00+103.92j;
}

object triplex_node {
  name R1_12_47_2_tn_26;
  phases CS;
  nominal_voltage 120.0;
  voltage_1 -60.00+103.92j;
  voltage_2 -60.00+103.92j;
}

object triplex_meter {
  name R1_12_47_2_tm_26;
  phases CS;
  nominal_voltage 120.0;
  voltage_1 -60.00+103.92j;
  voltage_2 -60.00+103.92j;
}

object triplex_node {
  name R1_12_47_2_tn_27;
  phases CS;
  nominal_voltage 120.0;
  voltage_1 -60.00+103.92j;
  voltage_2 -60.00+103.92j;
}

object triplex_meter {
  name R1_12_47_2_tm_27;
  phases CS;
  nominal_voltage 120.0;
  voltage_1 -60.00+103.92j;
  voltage_2 -60.00+103.92j;
}

object triplex_node {
  name R1_12_47_2_tn_28;
  phases CS;
  nominal_voltage 120.0;
  voltage_1 -60.00+103.92j;
  voltage_2 -60.00+103.92j;
}

object triplex_meter {
  name R1_12_47_2_tm_28;
  phases CS;
  nominal_voltage 120.0;
  voltage_1 -60.00+103.92j;
  voltage_2 -60.00+103.92j;
}

object triplex_node {
  name R1_12_47_2_tn_29;
  phases CS;
  nominal_voltage 120.0;
  voltage_1 -60.00+103.92j;
  voltage_2 -60.00+103.92j;
}

object triplex_meter {
  name R1_12_47_2_tm_29;
  phases CS;
  nominal_voltage 120.0;
  voltage_1 -60.00+103.92j;
  voltage_2 -60.00+103.92j;
}

object triplex_node {
  name R1_12_47_2_tn_30;
  phases CS;
  nominal_voltage 120.0;
  voltage_1 -60.00+103.92j;
  voltage_2 -60.00+103.92j;
}

object triplex_meter {
  name R1_12_47_2_tm_30;
  phases CS;
  nominal_voltage 120.0;
  voltage_1 -60.00+103.92j;
  voltage_2 -60.00+103.92j;
}

object triplex_node {
  name R1_12_47_2_tn_31;
  phases CS;
  nominal_voltage 120.0;
  voltage_1 -60.00+103.92j;
  voltage_2 -60.00+103.92j;
}

object triplex_meter {
  name R1_12_47_2_tm_31;
  phases CS;
  nominal_voltage 120.0;
  voltage_1 -60.00+103.92j;
  voltage_2 -60.00+103.92j;
}

object triplex_node {
  name R1_12_47_2_tn_32;
  phases CS;
  nominal_voltage 120.0;
  voltage_1 -60.00+103.92j;
  voltage_2 -60.00+103.92j;
}

object triplex_meter {
  name R1_12_47_2_tm_32;
  phases CS;
  nominal_voltage 120.0;
  voltage_1 -60.00+103.92j;
  voltage_2 -60.00+103.92j;
}

object triplex_node {
  name R1_12_47_2_tn_33;
  phases CS;
  nominal_voltage 120.0;
  voltage_1 -60.00+103.92j;
  voltage_2 -60.00+103.92j;
}

object triplex_meter {
  name R1_12_47_2_tm_33;
  phases CS;
  nominal_voltage 120.0;
  voltage_1 -60.00+103.92j;
  voltage_2 -60.00+103.92j;
}

object triplex_node {
  name R1_12_47_2_tn_34;
  phases CS;
  nominal_voltage 120.0;
  voltage_1 -60.00+103.92j;
  voltage_2 -60.00+103.92j;
}

object triplex_meter {
  name R1_12_47_2_tm_34;
  phases CS;
  nominal_voltage 120.0;
  voltage_1 -60.00+103.92j;
  voltage_2 -60.00+103.92j;
}

object triplex_node {
  name R1_12_47_2_tn_35;
  phases CS;
  nominal_voltage 120.0;
  voltage_1 -60.00+103.92j;
  voltage_2 -60.00+103.92j;
}

object triplex_meter {
  name R1_12_47_2_tm_35;
  phases CS;
  nominal_voltage 120.0;
  voltage_1 -60.00+103.92j;
  voltage_2 -60.00+103.92j;
}

object triplex_node {
  name R1_12_47_2_tn_36;
  phases CS;
  nominal_voltage 120.0;
  voltage_1 -60.00+103.92j;
  voltage_2 -60.00+103.92j;
}

object triplex_meter {
  name R1_12_47_2_tm_36;
  phases CS;
  nominal_voltage 120.0;
  voltage_1 -60.00+103.92j;
  voltage_2 -60.00+103.92j;
}

object triplex_node {
  name R1_12_47_2_tn_37;
  phases CS;
  nominal_voltage 120.0;
  voltage_1 -60.00+103.92j;
  voltage_2 -60.00+103.92j;
}

object triplex_meter {
  name R1_12_47_2_tm_37;
  phases CS;
  nominal_voltage 120.0;
  voltage_1 -60.00+103.92j;
  voltage_2 -60.00+103.92j;
}

object triplex_node {
  name R1_12_47_2_tn_38;
  phases BS;
  nominal_voltage 120.0;
  voltage_1 -60.00-103.92j;
  voltage_2 -60.00-103.92j;
}

object triplex_meter {
  name R1_12_47_2_tm_38;
  phases BS;
  nominal_voltage 120.0;
  voltage_1 -60.00-103.92j;
  voltage_2 -60.00-103.92j;
}

object triplex_node {
  name R1_12_47_2_tn_39;
  phases BS;
  nominal_voltage 120.0;
  voltage_1 -60.00-103.92j;
  voltage_2 -60.00-103.92j;
}

object triplex_meter {
  name R1_12_47_2_tm_39;
  phases BS;
  nominal_voltage 120.0;
  voltage_1 -60.00-103.92j;
  voltage_2 -60.00-103.92j;
}

object triplex_node {
  name R1_12_47_2_tn_40;
  phases BS;
  nominal_voltage 120.0;
  voltage_1 -60.00-103.92j;
  voltage_2 -60.00-103.92j;
}

object triplex_meter {
  name R1_12_47_2_tm_40;
  phases BS;
  nominal_voltage 120.0;
  voltage_1 -60.00-103.92j;
  voltage_2 -60.00-103.92j;
}

object triplex_node {
  name R1_12_47_2_tn_41;
  phases BS;
  nominal_voltage 120.0;
  voltage_1 -60.00-103.92j;
  voltage_2 -60.00-103.92j;
}

object triplex_meter {
  name R1_12_47_2_tm_41;
  phases BS;
  nominal_voltage 120.0;
  voltage_1 -60.00-103.92j;
  voltage_2 -60.00-103.92j;
}

object triplex_node {
  name R1_12_47_2_tn_42;
  phases BS;
  nominal_voltage 120.0;
  voltage_1 -60.00-103.92j;
  voltage_2 -60.00-103.92j;
}

object triplex_meter {
  name R1_12_47_2_tm_42;
  phases BS;
  nominal_voltage 120.0;
  voltage_1 -60.00-103.92j;
  voltage_2 -60.00-103.92j;
}

object triplex_node {
  name R1_12_47_2_tn_43;
  phases BS;
  nominal_voltage 120.0;
  voltage_1 -60.00-103.92j;
  voltage_2 -60.00-103.92j;
}

object triplex_meter {
  name R1_12_47_2_tm_43;
  phases BS;
  nominal_voltage 120.0;
  voltage_1 -60.00-103.92j;
  voltage_2 -60.00-103.92j;
}

object triplex_node {
  name R1_12_47_2_tn_44;
  phases BS;
  nominal_voltage 120.0;
  voltage_1 -60.00-103.92j;
  voltage_2 -60.00-103.92j;
}

object triplex_meter {
  name R1_12_47_2_tm_44;
  phases BS;
  nominal_voltage 120.0;
  voltage_1 -60.00-103.92j;
  voltage_2 -60.00-103.92j;
}

object triplex_node {
  name R1_12_47_2_tn_45;
  phases BS;
  nominal_voltage 120.0;
  voltage_1 -60.00-103.92j;
  voltage_2 -60.00-103.92j;
}

object triplex_meter {
  name R1_12_47_2_tm_45;
  phases BS;
  nominal_voltage 120.0;
  voltage_1 -60.00-103.92j;
  voltage_2 -60.00-103.92j;
}

object triplex_node {
  name R1_12_47_2_tn_46;
  phases BS;
  nominal_voltage 120.0;
  voltage_1 -60.00-103.92j;
  voltage_2 -60.00-103.92j;
}

object triplex_meter {
  name R1_12_47_2_tm_46;
  phases BS;
  nominal_voltage 120.0;
  voltage_1 -60.00-103.92j;
  voltage_2 -60.00-103.92j;
}

object triplex_node {
  name R1_12_47_2_tn_47;
  phases BS;
  nominal_voltage 120.0;
  voltage_1 -60.00-103.92j;
  voltage_2 -60.00-103.92j;
}

object triplex_meter {
  name R1_12_47_2_tm_47;
  phases BS;
  nominal_voltage 120.0;
  voltage_1 -60.00-103.92j;
  voltage_2 -60.00-103.92j;
}

object triplex_node {
  name R1_12_47_2_tn_48;
  phases BS;
  nominal_voltage 120.0;
  voltage_1 -60.00-103.92j;
  voltage_2 -60.00-103.92j;
}

object triplex_meter {
  name R1_12_47_2_tm_48;
  phases BS;
  nominal_voltage 120.0;
  voltage_1 -60.00-103.92j;
  voltage_2 -60.00-103.92j;
}

object triplex_node {
  name R1_12_47_2_tn_49;
  phases BS;
  nominal_voltage 120.0;
  voltage_1 -60.00-103.92j;
  voltage_2 -60.00-103.92j;
}

object triplex_meter {
  name R1_12_47_2_tm_49;
  phases BS;
  nominal_voltage 120.0;
  voltage_1 -60.00-103.92j;
  voltage_2 -60.00-103.92j;
}

object triplex_node {
  name R1_12_47_2_tn_50;
  phases BS;
  nominal_voltage 120.0;
  voltage_1 -60.00-103.92j;
  voltage_2 -60.00-103.92j;
}

object triplex_meter {
  name R1_12_47_2_tm_50;
  phases BS;
  nominal_voltage 120.0;
  voltage_1 -60.00-103.92j;
  voltage_2 -60.00-103.92j;
}

object triplex_node {
  name R1_12_47_2_tn_51;
  phases BS;
  nominal_voltage 120.0;
  voltage_1 -60.00-103.92j;
  voltage_2 -60.00-103.92j;
}

object triplex_meter {
  name R1_12_47_2_tm_51;
  phases BS;
  nominal_voltage 120.0;
  voltage_1 -60.00-103.92j;
  voltage_2 -60.00-103.92j;
}

object triplex_node {
  name R1_12_47_2_tn_52;
  phases BS;
  nominal_voltage 120.0;
  voltage_1 -60.00-103.92j;
  voltage_2 -60.00-103.92j;
}

object triplex_meter {
  name R1_12_47_2_tm_52;
  phases BS;
  nominal_voltage 120.0;
  voltage_1 -60.00-103.92j;
  voltage_2 -60.00-103.92j;
}

object triplex_node {
  name R1_12_47_2_tn_53;
  phases BS;
  nominal_voltage 120.0;
  voltage_1 -60.00-103.92j;
  voltage_2 -60.00-103.92j;
}

object triplex_meter {
  name R1_12_47_2_tm_53;
  phases BS;
  nominal_voltage 120.0;
  voltage_1 -60.00-103.92j;
  voltage_2 -60.00-103.92j;
}

object triplex_node {
  name R1_12_47_2_tn_54;
  phases BS;
  nominal_voltage 120.0;
  voltage_1 -60.00-103.92j;
  voltage_2 -60.00-103.92j;
}

object triplex_meter {
  name R1_12_47_2_tm_54;
  phases BS;
  nominal_voltage 120.0;
  voltage_1 -60.00-103.92j;
  voltage_2 -60.00-103.92j;
}

object triplex_node {
  name R1_12_47_2_tn_55;
  phases BS;
  nominal_voltage 120.0;
  voltage_1 -60.00-103.92j;
  voltage_2 -60.00-103.92j;
}

object triplex_meter {
  name R1_12_47_2_tm_55;
  phases BS;
  nominal_voltage 120.0;
  voltage_1 -60.00-103.92j;
  voltage_2 -60.00-103.92j;
}

object triplex_node {
  name R1_12_47_2_tn_56;
  phases BS;
  nominal_voltage 120.0;
  voltage_1 -60.00-103.92j;
  voltage_2 -60.00-103.92j;
}

object triplex_meter {
  name R1_12_47_2_tm_56;
  phases BS;
  nominal_voltage 120.0;
  voltage_1 -60.00-103.92j;
  voltage_2 -60.00-103.92j;
}

object triplex_node {
  name R1_12_47_2_tn_57;
  phases BS;
  nominal_voltage 120.0;
  voltage_1 -60.00-103.92j;
  voltage_2 -60.00-103.92j;
}

object triplex_meter {
  name R1_12_47_2_tm_57;
  phases BS;
  nominal_voltage 120.0;
  voltage_1 -60.00-103.92j;
  voltage_2 -60.00-103.92j;
}

object triplex_node {
  name R1_12_47_2_tn_58;
  phases BS;
  nominal_voltage 120.0;
  voltage_1 -60.00-103.92j;
  voltage_2 -60.00-103.92j;
}

object triplex_meter {
  name R1_12_47_2_tm_58;
  phases BS;
  nominal_voltage 120.0;
  voltage_1 -60.00-103.92j;
  voltage_2 -60.00-103.92j;
}

object triplex_node {
  name R1_12_47_2_tn_59;
  phases BS;
  nominal_voltage 120.0;
  voltage_1 -60.00-103.92j;
  voltage_2 -60.00-103.92j;
}

object triplex_meter {
  name R1_12_47_2_tm_59;
  phases BS;
  nominal_voltage 120.0;
  voltage_1 -60.00-103.92j;
  voltage_2 -60.00-103.92j;
}

object triplex_node {
  name R1_12_47_2_tn_60;
  phases BS;
  nominal_voltage 120.0;
  voltage_1 -60.00-103.92j;
  voltage_2 -60.00-103.92j;
}

object triplex_meter {
  name R1_12_47_2_tm_60;
  phases BS;
  nominal_voltage 120.0;
  voltage_1 -60.00-103.92j;
  voltage_2 -60.00-103.92j;
}

object triplex_node {
  name R1_12_47_2_tn_61;
  phases BS;
  nominal_voltage 120.0;
  voltage_1 -60.00-103.92j;
  voltage_2 -60.00-103.92j;
}

object triplex_meter {
  name R1_12_47_2_tm_61;
  phases BS;
  nominal_voltage 120.0;
  voltage_1 -60.00-103.92j;
  voltage_2 -60.00-103.92j;
}

object triplex_node {
  name R1_12_47_2_tn_62;
  phases BS;
  nominal_voltage 120.0;
  voltage_1 -60.00-103.92j;
  voltage_2 -60.00-103.92j;
}

object triplex_meter {
  name R1_12_47_2_tm_62;
  phases BS;
  nominal_voltage 120.0;
  voltage_1 -60.00-103.92j;
  voltage_2 -60.00-103.92j;
}

object triplex_node {
  name R1_12_47_2_tn_63;
  phases BS;
  nominal_voltage 120.0;
  voltage_1 -60.00-103.92j;
  voltage_2 -60.00-103.92j;
}

object triplex_meter {
  name R1_12_47_2_tm_63;
  phases BS;
  nominal_voltage 120.0;
  voltage_1 -60.00-103.92j;
  voltage_2 -60.00-103.92j;
}

object triplex_node {
  name R1_12_47_2_tn_64;
  phases BS;
  nominal_voltage 120.0;
  voltage_1 -60.00-103.92j;
  voltage_2 -60.00-103.92j;
}

object triplex_meter {
  name R1_12_47_2_tm_64;
  phases BS;
  nominal_voltage 120.0;
  voltage_1 -60.00-103.92j;
  voltage_2 -60.00-103.92j;
}

object triplex_node {
  name R1_12_47_2_tn_65;
  phases BS;
  nominal_voltage 120.0;
  voltage_1 -60.00-103.92j;
  voltage_2 -60.00-103.92j;
}

object triplex_meter {
  name R1_12_47_2_tm_65;
  phases BS;
  nominal_voltage 120.0;
  voltage_1 -60.00-103.92j;
  voltage_2 -60.00-103.92j;
}

object triplex_node {
  name R1_12_47_2_tn_66;
  phases BS;
...